; Filename: networks/Tnet3.inp
; WNTR: 0.2.3
; Created: 2025-03-19 15:08:43
[TITLE]

[JUNCTIONS]
;ID                      Elevation       Demand Pattern                 
 JUNCTION-0                    376.07        0.763534 PATTERN-0                  ;
 JUNCTION-1                       192               0 PATTERN-0                  ;
 JUNCTION-2                    363.14            0.83 PATTERN-0                  ;
 JUNCTION-3                    428.07             4.4 PATTERN-0                  ;
 JUNCTION-4                    477.81        3.836466 PATTERN-0                  ;
 JUNCTION-5                    494.23        3.529833 PATTERN-0                  ;
 JUNCTION-6                       505            1.85 PATTERN-0                  ;
 JUNCTION-7                    535.23               0 PATTERN-0                  ;
 JUNCTION-8                    493.42            1.54 PATTERN-0                  ;
 JUNCTION-9                    488.29               0 PATTERN-0                  ;
 JUNCTION-10                   333.62        0.341497 PATTERN-0                  ;
 JUNCTION-11                    344.1        1.049859 PATTERN-0                  ;
 JUNCTION-12                    379.5        0.025149 PATTERN-0                  ;
 JUNCTION-13                   325.95               0 PATTERN-0                  ;
 JUNCTION-14                   416.85               0 PATTERN-0                  ;
 JUNCTION-15                   423.49        1.320167 PATTERN-0                  ;
 JUNCTION-16                      383               0 PATTERN-0                  ;
 JUNCTION-17                   385.06        25.71568 PATTERN-0                  ;
 JUNCTION-18                   478.15        6.182285 PATTERN-0                  ;
 JUNCTION-19                   558.93        4.603554 PATTERN-0                  ;
 JUNCTION-20                   617.73            2.58 PATTERN-0                  ;
 JUNCTION-21                   652.42               0 PATTERN-0                  ;
 JUNCTION-22                   625.96            4.29 PATTERN-0                  ;
 JUNCTION-23                   604.34         3.19458 PATTERN-0                  ;
 JUNCTION-24                   636.61               0 PATTERN-0                  ;
 JUNCTION-25                   653.93            5.97 PATTERN-0                  ;
 JUNCTION-26                   683.43               0 PATTERN-0                  ;
 JUNCTION-27                   690.65       12.442156 PATTERN-0                  ;
 JUNCTION-28                   701.69        2.092553 PATTERN-0                  ;
 JUNCTION-29                   846.28               0 PATTERN-0                  ;
 JUNCTION-30                      636      116.764931 PATTERN-0                  ;
 JUNCTION-31                   600.43            2.37 PATTERN-0                  ;
 JUNCTION-32                   625.85            6.16 PATTERN-0                  ;
 JUNCTION-33                   622.78        0.958345 PATTERN-0                  ;
 JUNCTION-34                      200               0 PATTERN-0                  ;
 JUNCTION-35                   651.97        9.239535 PATTERN-0                  ;
 JUNCTION-36                   634.11               0 PATTERN-0                  ;
 JUNCTION-37                   677.05        3.286911 PATTERN-0                  ;
 JUNCTION-38                   646.51               0 PATTERN-0                  ;
 JUNCTION-39                   703.19        4.907129 PATTERN-0                  ;
 JUNCTION-40                   741.63        3.393717 PATTERN-0                  ;
 JUNCTION-41                   700.22        3.052871 PATTERN-0                  ;
 JUNCTION-42                   728.05       11.414126 PATTERN-0                  ;
 JUNCTION-43                   653.09            3.31 PATTERN-0                  ;
 JUNCTION-44                    678.5        5.167447 PATTERN-0                  ;
 JUNCTION-45                   747.32        9.354966 PATTERN-0                  ;
 JUNCTION-46                   820.24        4.365034 PATTERN-0                  ;
 JUNCTION-47                   640.47               0 PATTERN-0                  ;
 JUNCTION-48                   637.45               0 PATTERN-0                  ;
 JUNCTION-49                    623.9            1.14 PATTERN-0                  ;
 JUNCTION-50                   611.08        3.811622 PATTERN-0                  ;
 JUNCTION-51                   623.68            3.01 PATTERN-0                  ;
 JUNCTION-52                   613.27        4.918378 PATTERN-0                  ;
 JUNCTION-53                   607.63            3.03 PATTERN-0                  ;
 JUNCTION-54                   602.11            4.19 PATTERN-0                  ;
 JUNCTION-55                   603.34            3.08 PATTERN-0                  ;
 JUNCTION-56                   606.94               0 PATTERN-0                  ;
 JUNCTION-57                   617.97        0.431655 PATTERN-0                  ;
 JUNCTION-58                   610.21           22.02 PATTERN-0                  ;
 JUNCTION-59                   620.95               0 PATTERN-0                  ;
 JUNCTION-60                   623.99               0 PATTERN-0                  ;
 JUNCTION-61                   625.38               0 PATTERN-0                  ;
 JUNCTION-62                    625.4               0 PATTERN-0                  ;
 JUNCTION-63                   623.95               0 PATTERN-0                  ;
 JUNCTION-64                   623.13               0 PATTERN-0                  ;
 JUNCTION-65                   619.37               0 PATTERN-0                  ;
 JUNCTION-66                   619.72               0 PATTERN-0                  ;
 JUNCTION-67                    624.5               0 PATTERN-0                  ;
 JUNCTION-68                   617.08            20.9 PATTERN-0                  ;
 JUNCTION-69                      626            2.46 PATTERN-0                  ;
 JUNCTION-70                   619.11            6.25 PATTERN-0                  ;
 JUNCTION-71                   632.18            2.03 PATTERN-0                  ;
 JUNCTION-72                   622.35        2.793147 PATTERN-0                  ;
 JUNCTION-73                   620.37            2.63 PATTERN-0                  ;
 JUNCTION-74                   622.34            1.07 PATTERN-0                  ;
 JUNCTION-75                   629.16        2.546853 PATTERN-0                  ;
 JUNCTION-76                   622.55            2.67 PATTERN-0                  ;
 JUNCTION-77                   624.64            1.82 PATTERN-0                  ;
 JUNCTION-78                   618.02               0 PATTERN-0                  ;
 JUNCTION-79                   617.89               0 PATTERN-0                  ;
 JUNCTION-80                   616.89               0 PATTERN-0                  ;
 JUNCTION-81                   623.58            3.46 PATTERN-0                  ;
 JUNCTION-82                   618.76           10.22 PATTERN-0                  ;
 JUNCTION-83                   617.71         7.54116 PATTERN-0                  ;
 JUNCTION-84                   619.93         2.87884 PATTERN-0                  ;
 JUNCTION-85                   620.25               0 PATTERN-0                  ;
 JUNCTION-86                   623.48               0 PATTERN-0                  ;
 JUNCTION-87                   622.26               0 PATTERN-0                  ;
 JUNCTION-88                   621.69               0 PATTERN-0                  ;
 JUNCTION-89                   626.81            7.34 PATTERN-0                  ;
 JUNCTION-90                   644.09               0 PATTERN-0                  ;
 JUNCTION-91                   637.44               0 PATTERN-0                  ;
 JUNCTION-92                   628.24               0 PATTERN-0                  ;
 JUNCTION-93                   643.74           13.99 PATTERN-0                  ;
 JUNCTION-94                   633.48            2.13 PATTERN-0                  ;
 JUNCTION-95                   630.86        2.969609 PATTERN-0                  ;
 JUNCTION-96                   629.14        6.100391 PATTERN-0                  ;
 JUNCTION-97                   628.99            4.45 PATTERN-0                  ;
 JUNCTION-98                   643.05        5.966633 PATTERN-0                  ;
 JUNCTION-99                   641.89        7.173367 PATTERN-0                  ;
 JUNCTION-100                   637.9        5.888099 PATTERN-0                  ;
 JUNCTION-101                  645.09        0.661901 PATTERN-0                  ;
 JUNCTION-102                 1094.07           102.1 PATTERN-0                  ;
 JUNCTION-103                 1031.73        0.755915 PATTERN-1                  ;
 JUNCTION-104                  860.64        0.044085 PATTERN-1                  ;
 JUNCTION-105                       0               0 PATTERN-0                  ;
 JUNCTION-106                       0               0 PATTERN-0                  ;
 JUNCTION-109                       0               0 PATTERN-0                  ;
 JUNCTION-110                       0               0 PATTERN-0                  ;
 JUNCTION-111                     418               0 PATTERN-0                  ;
 JUNCTION-112                     418               0 PATTERN-0                  ;
 JUNCTION-113                     359               0 PATTERN-0                  ;
 JUNCTION-114                     359               0 PATTERN-0                  ;
 JUNCTION-115                     533               0 PATTERN-0                  ;
 JUNCTION-116                     533               0 PATTERN-0                  ;
 JUNCTION-117                     404               0 PATTERN-0                  ;
 JUNCTION-118                     404               0 PATTERN-0                  ;
 JUNCTION-119                     849               0 PATTERN-0                  ;
 JUNCTION-120                     849               0 PATTERN-0                  ;
 JUNCTION-121                     957               0 PATTERN-0                  ;
 JUNCTION-122                     957               0 PATTERN-0                  ;
 JUNCTION-123                     758               0 PATTERN-0                  ;
 JUNCTION-124                     758               0 PATTERN-0                  ;
 JUNCTION-125                     434               0 PATTERN-0                  ;
 JUNCTION-126                     434               0 PATTERN-0                  ;
 JUNCTION-128                       0               0 PATTERN-0                  ;

[RESERVOIRS]
;ID                                   Head                  Pattern
 RESERVOIR-129                    425                            ;

[TANKS]
;ID                              Elevation           Init Level            Min Level            Max Level             Diameter           Min Volume Volume Curve        
 TANK-130                       843.9          15.159               0            32.1             186               0                        ;
 TANK-131                      1137.1          17.945               0            41.9             106               0                        ;

[PIPES]
;ID                   Node1                Node2                              Length             Diameter            Roughness           Minor Loss               Status
 LINK-0               JUNCTION-126         JUNCTION-118                    7401       20.453411             138               0                 Open   ;
 LINK-1               JUNCTION-17          JUNCTION-0                       359        7.999894             139               0                 Open   ;
 LINK-2               JUNCTION-0           JUNCTION-2                       324        7.999894             139               0                 Open   ;
 LINK-3               JUNCTION-3           JUNCTION-4                       697         7.99981             139               0                 Open   ;
 LINK-6               JUNCTION-5           JUNCTION-4                       574        7.999807             139               0                 Open   ;
 LINK-7               JUNCTION-5           JUNCTION-6                       238        7.999912             139               0                 Open   ;
 LINK-8               JUNCTION-6           JUNCTION-7                       502               8             139               0                 Open   ;
 LINK-9               JUNCTION-8           JUNCTION-6                       396        7.999894             139               0                 Open   ;
 LINK-10              JUNCTION-9           JUNCTION-8                       377        7.999894             139               0                 Open   ;
 LINK-11              JUNCTION-18          JUNCTION-9                       308        7.999947             139               0                 Open   ;
 LINK-12              JUNCTION-9           JUNCTION-8                       837        7.999841             139               0                 Open   ;
 LINK-13              JUNCTION-2           JUNCTION-113                     180               8             138               0                 Open   ;
 LINK-14              JUNCTION-114         JUNCTION-10                      599        7.999901             138               0                 Open   ;
 LINK-15              JUNCTION-1           JUNCTION-109                     125              16             138               0                 Open   ;
 LINK-16              JUNCTION-10          JUNCTION-11                      409        7.999841             138               0                 Open   ;
 LINK-17              JUNCTION-110         JUNCTION-34                      124              12             138               0                 Open   ;
 LINK-18              JUNCTION-128         JUNCTION-1                       320              30             138               0                 Open   ;
 LINK-19              RESERVOIR-129        JUNCTION-128                     153              30             138               0                 Open   ;
 LINK-20              JUNCTION-12          JUNCTION-13                      597               8             140               0                 Open   ;
 LINK-21              JUNCTION-12          JUNCTION-11                      671         7.99981             138               0                 Open   ;
 LINK-22              JUNCTION-14          JUNCTION-12                      332        7.999863             139               0                 Open   ;
 LINK-23              JUNCTION-5           JUNCTION-15                     2089        7.999852             139               0                 Open   ;
 LINK-24              JUNCTION-15          JUNCTION-3                       150               8             139               0                 Open   ;
 LINK-25              JUNCTION-15          JUNCTION-111                     190               8             140               0                 Open   ;
 LINK-26              JUNCTION-112         JUNCTION-14                      196               8             140               0                 Open   ;
 LINK-27              JUNCTION-14          JUNCTION-16                      928               8             140               0                 Open   ;
 LINK-28              JUNCTION-17          JUNCTION-18                     1382        16.00029             138               0                 Open   ;
 LINK-29              JUNCTION-18          JUNCTION-116                     731        16.00015             138               0                 Open   ;
 LINK-30              JUNCTION-0           JUNCTION-4                      1570        7.999764             139               0                 Open   ;
 LINK-31              JUNCTION-29          JUNCTION-28                     1402       24.000489             138               0                 Open   ;
 LINK-32              JUNCTION-45          JUNCTION-46                     1811         7.99983             140               0                 Open   ;
 LINK-33              JUNCTION-23          JUNCTION-124                    1845              12             140               0                 Open   ;
 LINK-34              JUNCTION-122         JUNCTION-123                    2433              12             140               0                 Open   ;
 LINK-35              JUNCTION-34          JUNCTION-30             10260.284142       24.000979             138               0                 Open   ;
 LINK-36              JUNCTION-41          JUNCTION-39                     1066        7.999947             138               0                 Open   ;
 LINK-37              JUNCTION-2           JUNCTION-3                      1066        7.999796             139               0                 Open   ;
 LINK-38              JUNCTION-11          JUNCTION-10                     1000        7.999805             138               0                 Open   ;
 LINK-39              JUNCTION-117         JUNCTION-17                     1537       16.000075             138               0                 Open   ;
 LINK-40              JUNCTION-20          JUNCTION-21                     2125       20.000594             138               0                 Open   ;
 LINK-41              JUNCTION-20          JUNCTION-115                    3227       16.000327             138               0                 Open   ;
 LINK-42              JUNCTION-19          JUNCTION-125                    2125       20.000167             138               0                 Open   ;
 LINK-43              JUNCTION-19          JUNCTION-20                      942              20             138               0                 Open   ;
 LINK-44              JUNCTION-21          JUNCTION-22                     1257       20.000439             138               0                 Open   ;
 LINK-45              JUNCTION-22          JUNCTION-23                     1101       24.000739             138               0                 Open   ;
 LINK-46              JUNCTION-23          JUNCTION-30                     1175       24.000727             138               0                 Open   ;
 LINK-47              JUNCTION-22          JUNCTION-24                      292              24             138               0                 Open   ;
 LINK-48              JUNCTION-24          JUNCTION-25                      178              24             138               0                 Open   ;
 LINK-49              JUNCTION-25          JUNCTION-26                      336              24             138               0                 Open   ;
 LINK-50              JUNCTION-26          JUNCTION-27                      196              24             138               0                 Open   ;
 LINK-51              JUNCTION-27          JUNCTION-28                      144              24             138               0                 Open   ;
 LINK-52              JUNCTION-30          JUNCTION-31                     1146              12             138               0                 Open   ;
 LINK-53              JUNCTION-31          JUNCTION-32                     1699              12             138               0                 Open   ;
 LINK-54              JUNCTION-32          JUNCTION-33                      645              12             138               0                 Open   ;
 LINK-55              JUNCTION-33          JUNCTION-57                      754         8.41387             138               0                 Open   ;
 LINK-56              JUNCTION-19          JUNCTION-35                     1113        7.999903             140               0                 Open   ;
 LINK-57              JUNCTION-35          JUNCTION-36                      507               8             140               0                 Open   ;
 LINK-58              JUNCTION-35          JUNCTION-37                      246        7.999947             140               0                 Open   ;
 LINK-59              JUNCTION-37          JUNCTION-20                      739        7.999947             138               0                 Open   ;
 LINK-60              JUNCTION-35          JUNCTION-38                      552               8             140               0                 Open   ;
 LINK-61              JUNCTION-37          JUNCTION-39                      348               8             138               0                 Open   ;
 LINK-62              JUNCTION-39          JUNCTION-40                      998        8.296935             139               0                 Open   ;
 LINK-63              JUNCTION-40          JUNCTION-41                      619               8             138               0                 Open   ;
 LINK-64              JUNCTION-40          JUNCTION-42                      538        7.999947             138               0                 Open   ;
 LINK-65              JUNCTION-42          JUNCTION-41                      668               8             138               0                 Open   ;
 LINK-66              JUNCTION-42          JUNCTION-27                     2581        8.019783             138               0                 Open   ;
 LINK-67              JUNCTION-24          JUNCTION-43                      544               8             140               0                 Open   ;
 LINK-68              JUNCTION-43          JUNCTION-25                      420               8             140               0                 Open   ;
 LINK-69              JUNCTION-43          JUNCTION-44                      373        7.999947             140               0                 Open   ;
 LINK-70              JUNCTION-44          JUNCTION-26                      556               8             140               0                 Open   ;
 LINK-71              JUNCTION-44          JUNCTION-28                      752        7.999947             140               0                 Open   ;
 LINK-72              JUNCTION-29          TANK-130                         242              24             138               0                 Open   ;
 LINK-73              JUNCTION-21          JUNCTION-47                       91               8             139               0                 Open   ;
 LINK-74              JUNCTION-47          JUNCTION-48                      805               8             139               0                 Open   ;
 LINK-75              JUNCTION-48          JUNCTION-49                      574               8             139               0                 Open   ;
 LINK-76              JUNCTION-49          JUNCTION-22                      158               8             139               0                 Open   ;
 LINK-77              JUNCTION-49          JUNCTION-50                      577        7.999947             139               0                 Open   ;
 LINK-78              JUNCTION-50          JUNCTION-51                      388               8             139               0                 Open   ;
 LINK-79              JUNCTION-51          JUNCTION-48                      236               8             139               0                 Open   ;
 LINK-80              JUNCTION-51          JUNCTION-52                      393               8             139               0                 Open   ;
 LINK-81              JUNCTION-52          JUNCTION-47                      549        7.999947             139               0                 Open   ;
 LINK-82              JUNCTION-52          JUNCTION-50                     1381        7.999947             139               0                 Open   ;
 LINK-83              JUNCTION-23          JUNCTION-53                      919        9.999941             139               0                 Open   ;
 LINK-84              JUNCTION-53          JUNCTION-54                      386         9.99997             139               0                 Open   ;
 LINK-85              JUNCTION-54          JUNCTION-31                      229              10             139               0                 Open   ;
 LINK-86              JUNCTION-53          JUNCTION-56                      232               8             140               0                 Open   ;
 LINK-87              JUNCTION-56          JUNCTION-55                      390               8             140               0                 Open   ;
 LINK-88              JUNCTION-55          JUNCTION-54                      254               8             140               0                 Open   ;
 LINK-89              JUNCTION-55          JUNCTION-56                      873        7.999947             140               0                 Open   ;
 LINK-90              JUNCTION-32          JUNCTION-57                      945        7.999947             140               0                 Open   ;
 LINK-91              JUNCTION-57          JUNCTION-33                      230               8             140               0                 Open   ;
 LINK-92              JUNCTION-31          JUNCTION-58                     1155              10             139               0                 Open   ;
 LINK-93              JUNCTION-58          JUNCTION-59                      413               8             140               0                 Open   ;
 LINK-94              JUNCTION-59          JUNCTION-60                      943        7.999947             140               0                 Open   ;
 LINK-95              JUNCTION-60          JUNCTION-59                      196               8             140               0                 Open   ;
 LINK-96              JUNCTION-60          JUNCTION-61                      133               8             140               0                 Open   ;
 LINK-97              JUNCTION-61          JUNCTION-62                      138               8             140               0                 Open   ;
 LINK-98              JUNCTION-62          JUNCTION-63                      187               8             140               0                 Open   ;
 LINK-99              JUNCTION-63          JUNCTION-64                      134               8             139               0                 Open   ;
 LINK-100             JUNCTION-64          JUNCTION-65                      300               8             139               0                 Open   ;
 LINK-101             JUNCTION-65          JUNCTION-66                      108               8             139               0                 Open   ;
 LINK-102             JUNCTION-66          JUNCTION-67                      420        7.999947             139               0                 Open   ;
 LINK-103             JUNCTION-67          JUNCTION-61                      209               8             139               0                 Open   ;
 LINK-104             JUNCTION-66          JUNCTION-67                      398        7.999947             139               0                 Open   ;
 LINK-105             JUNCTION-68          JUNCTION-58                      381              10             139               0                 Open   ;
 LINK-106             JUNCTION-64          JUNCTION-65                      872        7.999947             140               0                 Open   ;
 LINK-107             JUNCTION-65          JUNCTION-68                      199               8             140               0                 Open   ;
 LINK-108             JUNCTION-63          JUNCTION-62                      713        7.999947             140               0                 Open   ;
 LINK-109             JUNCTION-68          JUNCTION-69                     1095              10             139               0                 Open   ;
 LINK-110             JUNCTION-69          JUNCTION-70                      231               8             140               0                 Open   ;
 LINK-111             JUNCTION-70          JUNCTION-71                      695               8             140               0                 Open   ;
 LINK-112             JUNCTION-70          JUNCTION-72                      528               8             140               0                 Open   ;
 LINK-113             JUNCTION-73          JUNCTION-69                      938              10             139               0                 Open   ;
 LINK-114             JUNCTION-72          JUNCTION-74                      169               8             140               0                 Open   ;
 LINK-115             JUNCTION-74          JUNCTION-73                      127               8             140               0                 Open   ;
 LINK-116             JUNCTION-72          JUNCTION-75                      928        7.999947             139               0                 Open   ;
 LINK-117             JUNCTION-75          JUNCTION-74                      336               8             139               0                 Open   ;
 LINK-118             JUNCTION-75          JUNCTION-76                      772               8             139               0                 Open   ;
 LINK-119             JUNCTION-76          JUNCTION-77                      417               8             139               0                 Open   ;
 LINK-120             JUNCTION-77          JUNCTION-73                      655              10             139               0                 Open   ;
 LINK-121             JUNCTION-76          JUNCTION-78                      167               8             139               0                 Open   ;
 LINK-122             JUNCTION-78          JUNCTION-79                      169               8             139               0                 Open   ;